Version 4
SHEET 1 880 692
WIRE 304 -32 304 -48
WIRE 400 -32 400 -48
WIRE 384 416 272 416
WIRE 0 496 -32 496
WIRE 112 496 80 496
WIRE 240 496 112 496
WIRE 272 496 272 416
WIRE 288 496 272 496
WIRE -32 512 -32 496
WIRE 112 512 112 496
WIRE 384 512 384 416
WIRE 384 512 352 512
WIRE 416 512 384 512
WIRE 768 512 496 512
WIRE 240 528 240 496
WIRE 288 528 240 528
WIRE 768 528 768 512
WIRE 112 592 112 576
WIRE 496 592 496 576
WIRE -32 608 -32 592
FLAG 112 592 0
FLAG -32 608 0
FLAG -32 496 IN
FLAG 768 528 OUT
FLAG 304 -32 0
FLAG 400 -32 0
FLAG 304 -128 5V
FLAG 400 -128 neg5V
FLAG 320 480 5V
FLAG 320 544 neg5V
FLAG 496 592 0
SYMBOL res 96 480 R90
WINDOW 0 0 56 VBottom 2
WINDOW 3 32 56 VTop 2
SYMATTR InstName R1
SYMATTR Value 1000
SYMBOL cap 96 512 R0
SYMATTR InstName C1
SYMATTR Value .15µ
SYMBOL voltage -32 496 R0
WINDOW 3 -409 93 Left 2
WINDOW 123 29 91 Left 2
WINDOW 39 0 0 Left 0
SYMATTR Value ""
SYMATTR Value2 AC 1
SYMATTR InstName V1
SYMBOL ZZZ\\OpAmp\\TL072 320 512 R0
SYMATTR InstName U1
SYMBOL voltage 304 -144 R0
WINDOW 123 0 0 Left 0
WINDOW 39 0 0 Left 0
SYMATTR InstName V2
SYMATTR Value 5
SYMBOL voltage 400 -144 R0
WINDOW 123 0 0 Left 0
WINDOW 39 0 0 Left 0
SYMATTR InstName V3
SYMATTR Value -5
SYMBOL res 512 496 R90
WINDOW 0 0 56 VBottom 2
WINDOW 3 32 56 VTop 2
SYMATTR InstName R2
SYMATTR Value 1000
SYMBOL cap 512 576 R180
WINDOW 0 24 56 Left 2
WINDOW 3 24 8 Left 2
SYMATTR InstName C2
SYMATTR Value .15µ
TEXT -304 616 Left 2 !.ac dec 10 1 3000000
