Version 4
SHEET 1 1404 680
WIRE 1056 -144 1008 -144
WIRE 1008 -128 1008 -144
WIRE 1056 -32 1056 -64
WIRE 1088 -32 1056 -32
WIRE 1184 -32 1168 -32
WIRE 1056 80 1056 -32
WIRE 1088 80 1056 80
WIRE 1168 96 1152 96
WIRE 1184 96 1184 -32
WIRE 1184 96 1168 96
WIRE 1200 96 1184 96
WIRE 720 112 640 112
WIRE 768 112 720 112
WIRE 864 112 848 112
WIRE 880 112 864 112
WIRE 992 112 960 112
WIRE 1088 112 992 112
WIRE 640 128 640 112
WIRE 992 192 992 176
WIRE 640 224 640 208
WIRE 864 288 864 112
WIRE 976 288 864 288
WIRE 1168 288 1168 96
WIRE 1168 288 1040 288
FLAG 640 224 0
FLAG 992 192 0
FLAG 1120 64 +5
FLAG 368 -32 +5
FLAG 368 48 0
FLAG 464 48 0
FLAG 464 -32 -5
FLAG 1120 128 -5
FLAG 720 112 IN
FLAG 1200 96 OUT
FLAG 1008 -128 0
SYMBOL voltage 640 112 R0
WINDOW 123 24 124 Left 2
WINDOW 39 0 0 Left 0
SYMATTR Value2 AC 1
SYMATTR InstName V2
SYMATTR Value ""
SYMBOL res 864 96 R90
WINDOW 0 0 56 VBottom 2
WINDOW 3 32 56 VTop 2
SYMATTR InstName R1
SYMATTR Value 2.7k
SYMBOL res 976 96 R90
WINDOW 0 0 56 VBottom 2
WINDOW 3 32 56 VTop 2
SYMATTR InstName R2
SYMATTR Value 7.5k
SYMBOL cap 976 112 R0
SYMATTR InstName C1
SYMATTR Value .036µ
SYMBOL ZZZ\\OpAmp\\TL072 1120 96 R0
SYMATTR InstName U1
SYMBOL cap 1040 272 R90
WINDOW 0 0 32 VBottom 2
WINDOW 3 32 32 VTop 2
SYMATTR InstName C3
SYMATTR Value .036µ
SYMBOL voltage 368 -48 R0
WINDOW 123 0 0 Left 0
WINDOW 39 0 0 Left 0
SYMATTR InstName V3
SYMATTR Value 5
SYMBOL voltage 464 -48 R0
WINDOW 123 0 0 Left 0
WINDOW 39 0 0 Left 0
SYMATTR InstName V4
SYMATTR Value -5
SYMBOL res 1184 -48 R90
WINDOW 0 0 56 VBottom 2
WINDOW 3 32 56 VTop 2
SYMATTR InstName R4
SYMATTR Value 5.1k
SYMBOL res 1040 -160 R0
SYMATTR InstName R3
SYMATTR Value 3.6k
TEXT 336 256 Left 2 !.ac dec 10 1 3000000
