Version 4
SHEET 1 2296 768
WIRE 288 -32 208 -32
WIRE 464 -32 368 -32
WIRE 208 80 208 -32
WIRE 304 80 208 80
WIRE 464 80 464 -32
WIRE 464 80 368 80
WIRE -336 144 -336 128
WIRE -240 144 -240 128
WIRE 48 208 -32 208
WIRE 160 208 128 208
WIRE 208 208 208 80
WIRE 208 208 160 208
WIRE 368 208 208 208
WIRE 464 224 464 80
WIRE 464 224 432 224
WIRE 512 224 464 224
WIRE 672 224 592 224
WIRE 368 240 320 240
WIRE -32 256 -32 208
WIRE 320 272 320 240
WIRE 592 320 592 288
WIRE -32 352 -32 336
FLAG -240 144 0
FLAG -336 144 0
FLAG -240 48 -6.5V
FLAG 400 256 -6.5V
FLAG -32 352 0
FLAG -32 208 in
FLAG 672 224 out
FLAG -336 48 6.5V
FLAG 400 192 6.5V
FLAG 320 272 0
FLAG 160 288 -6.5V
FLAG 592 320 0
SYMBOL ZZZ\\OpAmp\\LM324 400 224 R0
SYMATTR InstName U1
SYMBOL voltage -336 32 R0
WINDOW 123 0 0 Left 0
WINDOW 39 0 0 Left 0
SYMATTR InstName V1
SYMATTR Value 6.5V
SYMBOL voltage -240 32 R0
WINDOW 123 0 0 Left 0
WINDOW 39 0 0 Left 0
SYMATTR InstName V2
SYMATTR Value -6.5V
SYMBOL cap 368 64 R90
WINDOW 0 0 32 VBottom 2
WINDOW 3 32 32 VTop 2
SYMATTR InstName C1
SYMATTR Value 22µ
SYMBOL res 384 -48 R90
WINDOW 0 0 56 VBottom 2
WINDOW 3 32 56 VTop 2
SYMATTR InstName R2
SYMATTR Value 1.5k
SYMBOL res 32 224 R270
WINDOW 0 32 56 VTop 2
WINDOW 3 0 56 VBottom 2
SYMATTR InstName R1
SYMATTR Value 1k
SYMBOL voltage -32 240 R0
WINDOW 3 -188 234 Left 2
WINDOW 123 24 124 Left 2
WINDOW 39 0 0 Left 0
SYMATTR Value PULSE(0 3.3 0 0.0000001 0.0000001 {duty*0.000032768} 0.000032768 15000)
SYMATTR Value2 AC 1
SYMATTR InstName V3
SYMBOL res 144 192 R0
SYMATTR InstName R3
SYMATTR Value 4.2k
SYMBOL res 608 208 R90
WINDOW 0 0 56 VBottom 2
WINDOW 3 32 56 VTop 2
SYMATTR InstName R4
SYMATTR Value 100
SYMBOL cap 576 224 R0
SYMATTR InstName C2
SYMATTR Value .047µ
TEXT -224 408 Left 2 !.tran .3
TEXT -224 440 Left 2 !.param duty = 0.99
